# generated using pymatgen
data_LuCu4Au
_symmetry_space_group_name_H-M   'P 1'
_cell_length_a   7.05561683
_cell_length_b   7.05561683
_cell_length_c   7.05561683
_cell_angle_alpha   90.00000000
_cell_angle_beta   90.00000000
_cell_angle_gamma   90.00000000
_symmetry_Int_Tables_number   1
_chemical_formula_structural   LuCu4Au
_chemical_formula_sum   'Lu4 Cu16 Au4'
_cell_volume   351.24080377
_cell_formula_units_Z   4
loop_
 _symmetry_equiv_pos_site_id
 _symmetry_equiv_pos_as_xyz
  1  'x, y, z'
loop_
 _atom_site_type_symbol
 _atom_site_label
 _atom_site_symmetry_multiplicity
 _atom_site_fract_x
 _atom_site_fract_y
 _atom_site_fract_z
 _atom_site_occupancy
  Lu  Lu0  1  0.00000000  0.00000000  0.00000000  1
  Lu  Lu1  1  -0.00000000  3.52780841  3.52780841  1
  Lu  Lu2  1  3.52780841  0.00000000  3.52780841  1
  Lu  Lu3  1  3.52780841  3.52780841  0.00000000  1
  Au  Au4  1  5.29171262  5.29171262  5.29171262  1
  Au  Au5  1  5.29171262  1.76390421  1.76390421  1
  Au  Au6  1  1.76390421  5.29171262  1.76390421  1
  Au  Au7  1  1.76390421  1.76390421  5.29171262  1
  Cu  Cu8  1  2.60922824  2.60922824  2.60922824  1
  Cu  Cu9  1  4.44638859  4.44638859  2.60922824  1
  Cu  Cu10  1  4.44638859  2.60922824  4.44638859  1
  Cu  Cu11  1  2.60922824  4.44638859  4.44638859  1
  Cu  Cu12  1  2.60922824  6.13703666  6.13703666  1
  Cu  Cu13  1  4.44638859  0.91858017  6.13703666  1
  Cu  Cu14  1  4.44638859  6.13703666  0.91858017  1
  Cu  Cu15  1  2.60922824  0.91858017  0.91858017  1
  Cu  Cu16  1  6.13703666  2.60922824  6.13703666  1
  Cu  Cu17  1  0.91858017  4.44638859  6.13703666  1
  Cu  Cu18  1  0.91858017  2.60922824  0.91858017  1
  Cu  Cu19  1  6.13703666  4.44638859  0.91858017  1
  Cu  Cu20  1  6.13703666  6.13703666  2.60922824  1
  Cu  Cu21  1  0.91858017  0.91858017  2.60922824  1
  Cu  Cu22  1  0.91858017  6.13703666  4.44638859  1
  Cu  Cu23  1  6.13703666  0.91858017  4.44638859  1
