# generated using pymatgen
data_RbBH4
_symmetry_space_group_name_H-M   'P 1'
_cell_length_a   6.97389486
_cell_length_b   6.97389486
_cell_length_c   6.97389486
_cell_angle_alpha   90.00000000
_cell_angle_beta   90.00000000
_cell_angle_gamma   90.00000000
_symmetry_Int_Tables_number   1
_chemical_formula_structural   RbBH4
_chemical_formula_sum   'Rb4 B4 H16'
_cell_volume   339.17683750
_cell_formula_units_Z   4
loop_
 _symmetry_equiv_pos_site_id
 _symmetry_equiv_pos_as_xyz
  1  'x, y, z'
loop_
 _atom_site_type_symbol
 _atom_site_label
 _atom_site_symmetry_multiplicity
 _atom_site_fract_x
 _atom_site_fract_y
 _atom_site_fract_z
 _atom_site_occupancy
  Rb  Rb0  1  0.00000000  0.00000000  0.00000000  1
  Rb  Rb1  1  -0.00000000  3.48694743  3.48694743  1
  Rb  Rb2  1  3.48694743  0.00000000  3.48694743  1
  Rb  Rb3  1  3.48694743  3.48694743  0.00000000  1
  B  B4  1  3.48694743  3.48694743  3.48694743  1
  B  B5  1  3.48694743  0.00000000  0.00000000  1
  B  B6  1  -0.00000000  3.48694743  0.00000000  1
  B  B7  1  0.00000000  0.00000000  3.48694743  1
  H  H8  1  4.22624404  4.22624404  4.22624404  1
  H  H9  1  2.74765082  2.74765082  4.22624404  1
  H  H10  1  2.74765082  4.22624404  2.74765082  1
  H  H11  1  4.22624404  2.74765082  2.74765082  1
  H  H12  1  4.22624404  0.73929661  0.73929661  1
  H  H13  1  2.74765082  6.23459824  0.73929661  1
  H  H14  1  2.74765082  0.73929661  6.23459824  1
  H  H15  1  4.22624404  6.23459824  6.23459824  1
  H  H16  1  0.73929661  4.22624404  0.73929661  1
  H  H17  1  6.23459824  2.74765082  0.73929661  1
  H  H18  1  6.23459824  4.22624404  6.23459824  1
  H  H19  1  0.73929661  2.74765082  6.23459824  1
  H  H20  1  0.73929661  0.73929661  4.22624404  1
  H  H21  1  6.23459824  6.23459824  4.22624404  1
  H  H22  1  6.23459824  0.73929661  2.74765082  1
  H  H23  1  0.73929661  6.23459824  2.74765082  1
