# generated using pymatgen
data_LiFePO4
_symmetry_space_group_name_H-M   'P 1'
_cell_length_a   4.74480000
_cell_length_b   6.06577000
_cell_length_c   10.41037000
_cell_angle_alpha   90.50179000
_cell_angle_beta   90.00019000
_cell_angle_gamma   90.00362000
_symmetry_Int_Tables_number   1
_chemical_formula_structural   LiFePO4
_chemical_formula_sum   'Li4 Fe4 P4 O16'
_cell_volume   299.60796771
_cell_formula_units_Z   4
loop_
 _symmetry_equiv_pos_site_id
 _symmetry_equiv_pos_as_xyz
  1  'x, y, z'
loop_
 _atom_site_type_symbol
 _atom_site_label
 _atom_site_symmetry_multiplicity
 _atom_site_fract_x
 _atom_site_fract_y
 _atom_site_fract_z
 _atom_site_occupancy
  Li  Li0  1  0.00001000  0.99999000  0.99999000  1.0
  Li  Li1  1  0.99999000  0.50000000  0.00001000  1.0
  Li  Li2  1  0.49999000  0.99999000  0.50000000  1.0
  Li  Li3  1  0.50002000  0.50000000  0.50000000  1.0
  Fe  Fe4  1  0.52507000  0.25344000  0.21884000  1.0
  Fe  Fe5  1  0.02508000  0.74654000  0.28116000  1.0
  Fe  Fe6  1  0.97497000  0.25346000  0.71884000  1.0
  Fe  Fe7  1  0.47493000  0.74653000  0.78116000  1.0
  P  P8  1  0.58205000  0.75169000  0.09444000  1.0
  P  P9  1  0.08207000  0.24830000  0.40556000  1.0
  P  P10  1  0.91794000  0.75174000  0.59443000  1.0
  P  P11  1  0.41793000  0.24828000  0.90557000  1.0
  O  O12  1  0.29156000  0.25112000  0.04317000  1.0
  O  O13  1  0.25851000  0.75043000  0.09622000  1.0
  O  O14  1  0.71346000  0.95594000  0.16580000  1.0
  O  O15  1  0.71627000  0.54860000  0.16562000  1.0
  O  O16  1  0.21629000  0.45140000  0.33438000  1.0
  O  O17  1  0.21345000  0.04406000  0.33419000  1.0
  O  O18  1  0.75852000  0.24955000  0.40378000  1.0
  O  O19  1  0.79157000  0.74890000  0.45682000  1.0
  O  O20  1  0.20845000  0.25110000  0.54316000  1.0
  O  O21  1  0.24149000  0.75046000  0.59622000  1.0
  O  O22  1  0.78658000  0.95602000  0.66577000  1.0
  O  O23  1  0.78367000  0.54867000  0.66564000  1.0
  O  O24  1  0.28366000  0.45133000  0.83436000  1.0
  O  O25  1  0.28658000  0.04399000  0.83423000  1.0
  O  O26  1  0.74149000  0.24958000  0.90378000  1.0
  O  O27  1  0.70842000  0.74889000  0.95684000  1.0
