# generated using pymatgen
data_TaPd3
_symmetry_space_group_name_H-M   'P 1'
_cell_length_a   4.60756207
_cell_length_b   5.49378109
_cell_length_c   5.51877451
_cell_angle_alpha   119.90021515
_cell_angle_beta   90.07157135
_cell_angle_gamma   90.35408783
_symmetry_Int_Tables_number   1
_chemical_formula_structural   TaPd3
_chemical_formula_sum   'Ta2 Pd6'
_cell_volume   121.09826476
_cell_formula_units_Z   2
loop_
 _symmetry_equiv_pos_site_id
 _symmetry_equiv_pos_as_xyz
  1  'x, y, z'
loop_
 _atom_site_type_symbol
 _atom_site_label
 _atom_site_symmetry_multiplicity
 _atom_site_fract_x
 _atom_site_fract_y
 _atom_site_fract_z
 _atom_site_occupancy
  Ta  Ta0  1  2.36151446  3.00219185  -0.20100811  1
  Ta  Ta1  1  0.16990416  1.61444543  2.78216556  1
  Pd  Pd2  1  0.10168470  3.83433998  -0.77229436  1
  Pd  Pd3  1  0.13809021  3.96566196  1.40276962  1
  Pd  Pd4  1  2.44885532  0.89897700  2.77996996  1
  Pd  Pd5  1  0.15770813  3.80982299  -2.05242070  1
  Pd  Pd6  1  2.46113994  0.92979619  4.87032490  1
  Pd  Pd7  1  0.24787186  1.57012535  0.41301365  1
