# generated using pymatgen
data_CoTeSe
_symmetry_space_group_name_H-M   'P 1'
_cell_length_a   3.65308356
_cell_length_b   3.62655663
_cell_length_c   5.45567322
_cell_angle_alpha   89.90718079
_cell_angle_beta   90.28795624
_cell_angle_gamma   119.96878052
_symmetry_Int_Tables_number   1
_chemical_formula_structural   CoTeSe
_chemical_formula_sum   'Co1 Te1 Se1'
_cell_volume   62.61290798
_cell_formula_units_Z   1
loop_
 _symmetry_equiv_pos_site_id
 _symmetry_equiv_pos_as_xyz
  1  'x, y, z'
loop_
 _atom_site_type_symbol
 _atom_site_label
 _atom_site_symmetry_multiplicity
 _atom_site_fract_x
 _atom_site_fract_y
 _atom_site_fract_z
 _atom_site_occupancy
  Co  Co0  1  -1.46174207  2.86382793  3.74844103  1
  Te  Te1  1  0.39345776  1.79741892  2.28187672  1
  Se  Se2  1  2.20419340  0.76420180  5.09946320  1
