# generated using pymatgen
data_MnVOF3
_symmetry_space_group_name_H-M   'P 1'
_cell_length_a   4.67156092
_cell_length_b   5.82887082
_cell_length_c   6.59600319
_cell_angle_alpha   90.00000000
_cell_angle_beta   94.29382499
_cell_angle_gamma   90.00000000
_symmetry_Int_Tables_number   1
_chemical_formula_structural   MnVOF3
_chemical_formula_sum   'Mn2 V2 O2 F6'
_cell_volume   179.10454889
_cell_formula_units_Z   2
loop_
 _symmetry_equiv_pos_site_id
 _symmetry_equiv_pos_as_xyz
  1  'x, y, z'
loop_
 _atom_site_type_symbol
 _atom_site_label
 _atom_site_symmetry_multiplicity
 _atom_site_fract_x
 _atom_site_fract_y
 _atom_site_fract_z
 _atom_site_occupancy
  F  F0  1  0.96626941  3.24598472  6.02523585  1
  F  F1  1  0.96626941  2.58288610  2.72723425  1
  F  F2  1  1.31978963  2.14969751  3.98422520  1
  F  F3  1  1.31978963  3.67917331  0.68622360  1
  Mn  Mn4  1  2.37220719  4.35245100  6.28934040  1
  Mn  Mn5  1  2.37220719  1.47641982  2.99133880  1
  F  F6  1  3.31726433  4.94492214  0.66627366  1
  F  F7  1  3.31726433  0.88394868  3.96427526  1
  O  O8  1  4.61960464  0.82338073  2.68210768  1
  O  O9  1  4.61960464  5.00549009  5.98010927  1
  V  V10  1  4.56953990  3.41980769  0.74356101  1
  V  V11  1  4.56953990  2.40906313  4.04156261  1
