# generated using pymatgen
data_CoNi
_symmetry_space_group_name_H-M   'P 1'
_cell_length_a   2.45290900
_cell_length_b   2.45290900
_cell_length_c   12.19832559
_cell_angle_alpha   90.00000000
_cell_angle_beta   90.00000000
_cell_angle_gamma   120.00000000
_symmetry_Int_Tables_number   1
_chemical_formula_structural   CoNi
_chemical_formula_sum   'Co3 Ni3'
_cell_volume   63.56143963
_cell_formula_units_Z   3
loop_
 _symmetry_equiv_pos_site_id
 _symmetry_equiv_pos_as_xyz
  1  'x, y, z'
loop_
 _atom_site_type_symbol
 _atom_site_label
 _atom_site_symmetry_multiplicity
 _atom_site_fract_x
 _atom_site_fract_y
 _atom_site_fract_z
 _atom_site_occupancy
  Co  Co0  1  0.00000000  0.00000000  0.00000000  1
  Co  Co1  1  0.66666667  0.33333333  0.33333333  1
  Co  Co2  1  0.33333333  0.66666667  0.66666667  1
  Ni  Ni3  1  0.33333333  0.66666667  0.16666667  1
  Ni  Ni4  1  1.00000000  1.00000000  0.50000000  1
  Ni  Ni5  1  0.66666667  0.33333333  0.83333333  1
